Modified 4 Bus/6 Node with PV/4busDYBal_VLN_Node.Txt

LINE-GROUND and LINE-LINE VOLTAGES BY BUS & NODE

Bus       Node    VLN (kV)   Angle      pu     Base kV    Node-Node   VLL (kV)  Angle      pu

SOURCEBUS 1       7.1993 /_    0.0   0.99997    12.470        1-2      12.47 /_   30.0   0.99997
   -      2       7.1994 /_ -120.0   0.99997    12.470        2-3      12.47 /_  -90.0   0.99997
   -      3       7.1993 /_  120.0   0.99997    12.470        3-1      12.47 /_  150.0   0.99997
N2 ...... 1        7.104 /_   -0.3   0.98673    12.470        1-2     12.331 /_   29.7   0.98886
   -      2       7.1288 /_ -120.4   0.99018    12.470        2-3     12.339 /_  -90.4   0.98953
   -      3       7.1153 /_  119.6   0.98829    12.470        3-1     12.305 /_  149.6   0.98681
N3 ...... 1       2.2342 /_  -34.0   0.93022     4.160        1-2      3.878 /_   -3.6   0.93221
   -      2       2.2524 /_ -153.6   0.93779     4.160        2-3     3.9016 /_ -123.8   0.93788
   -      3       2.2466 /_   86.1   0.93539     4.160        3-1     3.8826 /_  116.0   0.93332
N4 ...... 1       1.8757 /_  -39.8   0.78098     4.160        1-2     3.3703 /_   -7.9   0.81017
   -      2       2.0357 /_ -158.8   0.84759     4.160        2-3     3.4691 /_ -129.9   0.83391
   -      3       1.9516 /_   80.3   0.81258     4.160        3-1     3.3173 /_  109.6   0.79742
N5 ...... 1       1.8675 /_  -40.0   0.77757     4.160        1-2     3.3592 /_   -8.0   0.80749
   -      2       2.0317 /_ -158.9    0.8459     4.160        2-3     3.4598 /_ -130.0   0.83169
   -      3       1.9449 /_   80.2   0.80977     4.160        3-1     3.3048 /_  109.5   0.79442
N6 ...... 1       1.8528 /_  -40.3   0.77144     4.160        1-2     3.3381 /_   -8.2   0.80242
   -      2       2.0229 /_ -159.1   0.84225     4.160        2-3     3.4425 /_ -130.3   0.82752
   -      3       1.9329 /_   79.9   0.80477     4.160        3-1     3.2819 /_  109.1   0.78891
PVBUS ... 1      0.22416 /_  -69.6   0.80885     0.480        1-2    0.38654 /_  -38.0   0.80529
   -      2      0.22795 /_  172.9   0.82253     0.480        2-3    0.40456 /_ -157.6   0.84284
   -      3      0.23452 /_   50.9   0.84625     0.480        3-1    0.39816 /_   79.9    0.8295
